/*--------------------------------*- C++ -*----------------------------------*\
| =========                 |                                                 |
| \\      /  F ield         | OpenFOAM: The Open Source CFD Toolbox           |
|  \\    /   O peration     | Version:  v2412                                 |
|   \\  /    A nd           | Website:  www.openfoam.com                      |
|    \\/     M anipulation  |                                                 |
\*---------------------------------------------------------------------------*/
FoamFile
{
    version     2.0;
    format      ascii;
    class       dictionary;
    object      blockMeshDict;
}
// * * * * * * * * * * * * * * * * * * * * * * * * * * * * * * * * * * * * * //
// B01: 六面体メッシュ (シリーズB). 設計根拠は repo cfd/campaign.md.
//
//   水槽   : x 0-3.0, y 0-2.0, z 0-0.13
//   導水路 : x -0.6-0, y 0.945-1.055, z 0-0.055
//
//   z 分割 (バンド境界 30/50/55/60/75/100 mm が全てセル面に乗る):
//     0-0.02 (5mm x4) / 0.02-0.055 (5mm x7) / 0.055-0.11 (5mm x11) / 0.11-0.13 (10mm x2)
//   x 分割: 0-0.5 を 10mm x50, 0.5-3.0 を 15mm x167 (multi-grading)
//   y 分割: 63 (15mm) / ポート帯 11 (10mm) / 63 (15mm)
//
//   ★ 常時水没インレット: 導水路上流端の下4層 (z<0.02) のみ inletOutlet.
//     上部 (z 0.02-0.055) は壁. スタート水位 20mm で最初から全面水没するため,
//     alpha=1 が「宣言」ではなく「事実」になる (質量厳密かつ滝なし. A08/campaign.md 参照)
//
//   期待値: セル 720,756 / 体積 0.78363 m3 /
//           atmosphere 29,729 面 / inletOutlet 44 面 / walls 49,317 面

scale   1;

// 頂点表.  x: xW=-0.6, x0=0, xE=3.0
//          y: 0, 0.945, 1.055, 2.0   (idx a: 0..3)
//          z: 0, 0.02, 0.055, 0.11, 0.13   (idx b: 0..4)
// 水槽の頂点番号 = (x0側: a*5+b), (xE側: 20+a*5+b). 導水路 = 40..45.
vertices
(
    // x=0 面 (0..19)
    (0 0 0)        (0 0 0.02)        (0 0 0.055)        (0 0 0.11)        (0 0 0.13)
    (0 0.945 0)    (0 0.945 0.02)    (0 0.945 0.055)    (0 0.945 0.11)    (0 0.945 0.13)
    (0 1.055 0)    (0 1.055 0.02)    (0 1.055 0.055)    (0 1.055 0.11)    (0 1.055 0.13)
    (0 2 0)        (0 2 0.02)        (0 2 0.055)        (0 2 0.11)        (0 2 0.13)
    // x=3 面 (20..39)
    (3 0 0)        (3 0 0.02)        (3 0 0.055)        (3 0 0.11)        (3 0 0.13)
    (3 0.945 0)    (3 0.945 0.02)    (3 0.945 0.055)    (3 0.945 0.11)    (3 0.945 0.13)
    (3 1.055 0)    (3 1.055 0.02)    (3 1.055 0.055)    (3 1.055 0.11)    (3 1.055 0.13)
    (3 2 0)        (3 2 0.02)        (3 2 0.055)        (3 2 0.11)        (3 2 0.13)
    // 導水路 x=-0.6 面 (40..45)
    (-0.6 0.945 0)    (-0.6 0.945 0.02)    (-0.6 0.945 0.055)
    (-0.6 1.055 0)    (-0.6 1.055 0.02)    (-0.6 1.055 0.055)
);

// 水槽の x 方向 multi-grading: 0-0.5m に 50 セル (10mm), 0.5-3.0m に 167 セル (15mm)
blocks
(
    // 水槽: y帯 a=0 (y 0-0.945, 63セル)
    hex (0 20 25 5   1 21 26 6)   (217 63 4)  simpleGrading ( ((0.5 50 1)(2.5 167 1)) 1 1 )
    hex (1 21 26 6   2 22 27 7)   (217 63 7)  simpleGrading ( ((0.5 50 1)(2.5 167 1)) 1 1 )
    hex (2 22 27 7   3 23 28 8)   (217 63 11) simpleGrading ( ((0.5 50 1)(2.5 167 1)) 1 1 )
    hex (3 23 28 8   4 24 29 9)   (217 63 2)  simpleGrading ( ((0.5 50 1)(2.5 167 1)) 1 1 )
    // 水槽: y帯 a=1 (ポート帯 y 0.945-1.055, 11セル)
    hex (5 25 30 10  6 26 31 11)  (217 11 4)  simpleGrading ( ((0.5 50 1)(2.5 167 1)) 1 1 )
    hex (6 26 31 11  7 27 32 12)  (217 11 7)  simpleGrading ( ((0.5 50 1)(2.5 167 1)) 1 1 )
    hex (7 27 32 12  8 28 33 13)  (217 11 11) simpleGrading ( ((0.5 50 1)(2.5 167 1)) 1 1 )
    hex (8 28 33 13  9 29 34 14)  (217 11 2)  simpleGrading ( ((0.5 50 1)(2.5 167 1)) 1 1 )
    // 水槽: y帯 a=2 (y 1.055-2.0, 63セル)
    hex (10 30 35 15 11 31 36 16) (217 63 4)  simpleGrading ( ((0.5 50 1)(2.5 167 1)) 1 1 )
    hex (11 31 36 16 12 32 37 17) (217 63 7)  simpleGrading ( ((0.5 50 1)(2.5 167 1)) 1 1 )
    hex (12 32 37 17 13 33 38 18) (217 63 11) simpleGrading ( ((0.5 50 1)(2.5 167 1)) 1 1 )
    hex (13 33 38 18 14 34 39 19) (217 63 2)  simpleGrading ( ((0.5 50 1)(2.5 167 1)) 1 1 )
    // 導水路 (x -0.6-0, 10mm x60): 下段 z 0-0.02, 上段 z 0.02-0.055
    hex (40 5 10 43  41 6 11 44)  (60 11 4)   simpleGrading (1 1 1)
    hex (41 6 11 44  42 7 12 45)  (60 11 7)   simpleGrading (1 1 1)
);

edges ();

boundary
(
    inletOutlet
    {
        type patch;
        faces
        (
            (40 43 44 41)          // 導水路上流端の下4層のみ (常時水没インレット)
        );
    }
    atmosphere
    {
        type patch;
        faces
        (
            (4 24 29 9) (9 29 34 14) (14 34 39 19)      // 水槽上面 z=0.13
        );
    }
    walls
    {
        type wall;
        faces
        (
            // 水槽底 z=0
            (0 20 25 5) (5 25 30 10) (10 30 35 15)
            // 水槽側面 y=0
            (0 20 21 1) (1 21 22 2) (2 22 23 3) (3 23 24 4)
            // 水槽側面 y=2
            (15 35 36 16) (16 36 37 17) (17 37 38 18) (18 38 39 19)
            // 水槽端面 x=3
            (20 25 26 21) (21 26 27 22) (22 27 28 23) (23 28 29 24)
            (25 30 31 26) (26 31 32 27) (27 32 33 28) (28 33 34 29)
            (30 35 36 31) (31 36 37 32) (32 37 38 33) (33 38 39 34)
            // 水槽西壁 x=0 (ポート開口部を除く)
            (0 5 6 1) (1 6 7 2) (2 7 8 3) (3 8 9 4)                    // 南帯
            (10 15 16 11) (11 16 17 12) (12 17 18 13) (13 18 19 14)    // 北帯
            (7 12 13 8) (8 13 14 9)                                    // ポート帯の z>0.055
            // 導水路: 底, 天井 (z=0.055), 側面, 上流端の上部 (z 0.02-0.055)
            (40 5 10 43)
            (42 7 12 45)
            (40 5 6 41) (41 6 7 42)
            (43 10 11 44) (44 11 12 45)
            (41 42 45 44)
        );
    }
);

mergePatchPairs ();

// ************************************************************************* //
